LAMMPS (23 Jun 2022 - Update 3)
units lj
dimension 3
boundary p p p

atom_style atomic
read_data random.data
Reading data file ...
  orthogonal box = (0 0 0) to (20 20 20)
  reading atoms ...
  1000 atoms
pair_style lj/cut 2.5
pair_coeff 1 1 1.0 1.0 2.5

mass 1 1.0

thermo 10
thermo_style custom step temp pe press vol lx density
dump mydump all custom 10 dump.min.lammpstrj id x y z

fix mynve all nve
minimize 1.0e-10 1.0e-10 10000 10000
Generated 0 of 0 mixed pair_coeff terms from geometric mixing rule
  update every 1 steps, delay 0 steps, check yes
Step          Temp          PotEng         Press          Volume           Lx          Density
0   0              2.2508094e+08  1.1254072e+08  8000           20             0.125
Averages over the last 86 of 171 rows, steps 850 to 1692:
Temp PotEng Press Volume Lx Density
0 -4.66864 -0.00282849 8000 20 0.125
Loop time of 1.78137 on 1 procs for 1692 steps with 1000 atoms

Minimization stats:
  Stopping criterion = linesearch alpha is zero
  Energy initial, next-to-last, final =
  Force two-norm initial, final = 3.0041023e+13 6.44913
  Force max component initial, final = 1.523413e+13 2.1074626
  Final line search alpha, max atom move = 1.5740399e-07 3.3172303e-07
  Iterations, force evaluations = 1692 3405
