LAMMPS (23 Jun 2022 - Update 3)
# init
units lj
dimension 3
atom_style atomic
pair_style lj/cut 2.5
boundary p p p

# system definition
read_data minimized_coordinate.data
Reading data file ...
  orthogonal box = (-20 -20 -20) to (20 20 20)
  reading atoms ...
  1150 atoms
  reading velocities ...
  1150 velocities

# remove atoms outside cylinder
region mycylin cylinder z 0 0 10 INF INF side in
region mycylou cylinder z 0 0 10 INF INF side out
group mytype1 type 1
1000 atoms in group mytype1
group mytype2 type 2
150 atoms in group mytype2
group incyl region mycylin
146 atoms in group incyl
group oucyl region mycylou
1004 atoms in group oucyl
group type1in intersect mytype1 incyl
0 atoms in group type1in
group type2ou intersect mytype2 oucyl
4 atoms in group type2ou
delete_atoms group type1in
Deleted 0 atoms, new total = 1150
delete_atoms group type2ou
Deleted 4 atoms, new total = 1146

# system settings
mass 1 1
mass 2 1
pair_coeff 1 1 1.0 1.0
pair_coeff 2 2 0.5 3.0
neigh_modify every 1 delay 5 check yes
group type1 type 1
1000 atoms in group type1
group type2 type 2
146 atoms in group type2

# visualization
thermo 1000
dump mydmp all atom 1000 dump.run.lammpstrj

# calc
variable Ntype1in equal count(mytype1,mycylin)
variable Ntype1ou equal count(mytype1,mycylou)
variable Ntype2in equal count(mytype2,mycylin)
variable Ntype2ou equal count(mytype2,mycylou)
fix myat1 all ave/time 10 200 2000 v_Ntype1in v_Ntype1ou file population1vstime.dat
fix myat2 all ave/time 10 200 2000 v_Ntype2in v_Ntype2ou file population2vstime.dat

compute coor12 type1 coord/atom cutoff 2.0 group type2
compute sumcoor12 all reduce ave c_coor12
fix myat3 all ave/time 10 200 2000 c_sumcoor12 file coordinationnumber12.dat

velocity all create 1.0 4928459 mom yes rot yes dist gaussian
fix mynve all nve
fix mylgv all langevin 1.0 1.0 0.1 1530917 zero yes
timestep 0.005
run 300000
Generated 1 of 1 mixed pair_coeff terms from geometric mixing rule
  update every 1 steps, delay 5 steps, check yes
Step          Temp          E_pair         E_mol          TotEng         Press
0   1             -0.13084311     0              1.367848       0.016781487
Averages over the last 151 of 301 rows, steps 150000 to 300000:
Temp E_pair E_mol TotEng Press
1.00038 -0.168879 0 1.33038 0.0173612
Loop time of 39.712 on 1 procs for 300000 steps with 1146 atoms

write_data mixed.data
System init for write_data ...
Generated 1 of 1 mixed pair_coeff terms from geometric mixing rule
