LAMMPS (23 Jun 2022 - Update 3)
units lj
dimension 3
boundary p p p

atom_style full
pair_style lj/cut 2.5
bond_style harmonic
read_data spcyl.data
Reading data file ...
  orthogonal box = (0 0 0) to (100 100 100)
  reading atoms ...
  1200 atoms
  reading velocities ...
  1200 velocities
  scanning bonds ...
  reading bonds ...
  800 bonds
Finding 1-2 1-3 1-4 neighbors ...
     2 = max # of 1-2 neighbors
     1 = max # of 1-3 neighbors
     1 = max # of 1-4 neighbors
     2 = max # of special neighbors

pair_coeff 1 1 1.0 1.0 2.5
group g_spcyl type 1
1200 atoms in group g_spcyl
fix 1 g_spcyl rigid/nvt molecule temp 13.0 13.0 4.0
  3 rigid bodies with 1200 atoms
# fix 1 g_spcyl rigid/nve molecule langevin 1.0 1.0 0.1 1321432

thermo 100
thermo_style custom step temp pe press vol lx density

dump mymindump all custom 50 dump.min.lammpstrj id x y z
minimize 0 0 10000 10000
Generated 0 of 0 mixed pair_coeff terms from geometric mixing rule
  update every 1 steps, delay 0 steps, check yes
Step          Temp          PotEng         Press          Volume           Lx          Density
0   318.65199     -0.00029554569  0.001592555    1000000        100            0.0012
Averages over the last 26 of 51 rows, steps 2500 to 4984:
Temp PotEng Press Volume Lx Density
318.652 -0.0169695 0.00159326 1e+06 100 0.0012
Loop time of 0.427993 on 16 procs for 4984 steps with 1200 atoms

Minimization stats:
  Stopping criterion = max force evaluations
  Energy initial, next-to-last, final =
  Force two-norm initial, final = 0.34386631 6.2258238e-12
  Force max component initial, final = 0.076291278 1.0094148e-12
  Final line search alpha, max atom move = 1 1.0094148e-12
  Iterations, force evaluations = 4984 10000

undump mymindump

dump mydmp all custom 100 dump.lammpstrj id x y z

fix 1 g_spcyl rigid/nvt molecule temp 13.0 13.0 4.0
  3 rigid bodies with 1200 atoms
neigh_modify every 1 delay 5 check yes
timestep 0.005
run 10000
Generated 0 of 0 mixed pair_coeff terms from geometric mixing rule
Step          Temp          PotEng         Press          Volume           Lx          Density
4984   318.65199     -0.016969471    0.0015932599   1000000        100            0.0012
Averages over the last 51 of 102 rows, steps 10000 to 14984:
Temp PotEng Press Volume Lx Density
17.0271 0.00751352 -0.000238775 1e+06 100 0.0012
Loop time of 1.14186 on 16 procs for 10000 steps with 1200 atoms
