LAMMPS (23 Jun 2022 - Update 3)
units lj
dimension 3
boundary p p p

atom_style full
pair_style lj/cut 2.5
bond_style harmonic
read_data polymer.data
Reading data file ...
  orthogonal box = (0 0 0) to (20 20 20)
  reading atoms ...
  5000 atoms
  reading velocities ...
  5000 velocities
  scanning bonds ...
  reading bonds ...
  4900 bonds
Finding 1-2 1-3 1-4 neighbors ...
     2 = max # of 1-2 neighbors
     2 = max # of 1-3 neighbors
     4 = max # of 1-4 neighbors
     6 = max # of special neighbors

pair_coeff 1 1 1.0 1.0 2.5

thermo 100
thermo_style custom step temp pe press vol lx density
dump mymindump all custom 10 dump.min.lammpstrj id x y z

fix mynve all nve
minimize 0 0 10000 10000
Generated 0 of 0 mixed pair_coeff terms from geometric mixing rule
  update every 1 steps, delay 0 steps, check yes
Step          Temp          PotEng         Press          Volume           Lx          Density
0   0              4945336.6      12363575       8000           20             0.625
Averages over the last 17 of 34 rows, steps 1700 to 3263:
Temp PotEng Press Volume Lx Density
0 -16.5916 -1.39675 8000 20 0.625
Loop time of 50.7669 on 16 procs for 3263 steps with 5000 atoms

Minimization stats:
  Stopping criterion = linesearch alpha is zero
  Energy initial, next-to-last, final =
  Force two-norm initial, final = 1.6783579e+12 25.377177
  Force max component initial, final = 7.2590676e+11 6.5233637
  Final line search alpha, max atom move = 7.1342323e-08 4.6539192e-07
  Iterations, force evaluations = 3263 6336

undump mymindump
dump mydmp all custom 100 dump.lammpstrj id x y z

compute myRDF all rdf 50
fix 1 all ave/time 100 1 100 c_myRDF[*] file tmp.rdf mode vector
fix mynve all nve
fix mylgv all langevin 1.0 1.0 0.1 1321432
neigh_modify every 1 delay 5 check yes
timestep 0.005
run 10000
Generated 0 of 0 mixed pair_coeff terms from geometric mixing rule
  update every 1 steps, delay 5 steps, check yes
Step          Temp          PotEng         Press          Volume           Lx          Density
3263   0             -16.84147      -1.3195564      8000           20             0.625
Averages over the last 51 of 102 rows, steps 8300 to 13263:
Temp PotEng Press Volume Lx Density
0.999413 -15.4762 -1.1355 8000 20 0.625
Loop time of 61.2747 on 16 procs for 10000 steps with 5000 atoms
