LAMMPS (23 Jun 2022 - Update 3)
package omp 0
using multi-threaded neighbor list subroutines
units real
atom_style full
bond_style harmonic
angle_style charmm
dihedral_style charmm
pair_style lj/cut/tip4p/long 1 2 1 1 0.105 12.0
pair_modify mix arithmetic
kspace_style pppm/tip4p 1.0e-4

region box block -40 40 -15 15 -15 15
create_box 7 box bond/types 6 angle/types 9 dihedral/types 14 extra/bond/per/atom 2 extra/angle/per/atom 1 extra/special/per/atom 2
Created orthogonal box = (-40 -15 -15) to (40 15 15)

include ../PARM.lmp
mass 1 15.9994 # H2O O
mass 2 1.008 # H2O H
mass 3 12.011 # CC32A
mass 4 15.9994 # OC30A
mass 5 1.008 # HCA2
mass 6 15.9994 # OC311
mass 7 1.008 # HCP1

# Pair Coeff
pair_coeff 1 1 0.18479 3.165 # H2O - TIP4P - epsilon water model
pair_coeff 2 2 0.0 0.0 # H2O H
pair_coeff 3 3 0.056 3.58141 # CC32A
pair_coeff 4 4 0.100 2.93997 # OC30A
pair_coeff 5 5 0.035 2.38761 # HCA2
pair_coeff 6 6 0.192 3.14487 # OC311
pair_coeff 7 7 0.046 0.40001 # HCP1

# Bond coeff
bond_coeff 1 0 0.9572 # H2O O-H
bond_coeff 2 222.35 1.5300
bond_coeff 3 308.79 1.1111
bond_coeff 4 359.76 1.1415
bond_coeff 5 427.715 1.1420
bond_coeff 6 544.635 0.9600

# Angle coeff
angle_coeff 1 0 104.52 0 0 # H2O H-O-H
angle_coeff 2 50.0000 109.0000 0.0000 0.0000
angle_coeff 3 26.5000 110.1000 22.5300 2.179
angle_coeff 4 45.0000 111.5000 0.0000 0.0000
angle_coeff 5 13.0258 109.4000 0.0000 0.0000
angle_coeff 6 35.5000 109.0000 5.4000 1.802
angle_coeff 7 55.0000 108.8900 0.0000 0.0000
angle_coeff 8 75.7000 110.1000 0.0000 0.0000
angle_coeff 9 95.0000 109.7000 0.0000 0.0000

# Dihedral coeff
dihedral_coeff 1 0.57 1 0 0
dihedral_coeff 2 0.29 2 0 0
dihedral_coeff 3 0.43 3 0 0
dihedral_coeff 4 0.59 1 180 0
dihedral_coeff 5 1.16 2 0 0
dihedral_coeff 6 0.12 1 0 0
dihedral_coeff 7 0.42 2 0 0
dihedral_coeff 8 0.29 3 0 0
dihedral_coeff 9 2.87 1 180 0
dihedral_coeff 10 0.03 2 0 0
dihedral_coeff 11 0.23 3 0 0
dihedral_coeff 12 1.36 1 180 0
dihedral_coeff 13 0.16 2 0 0
dihedral_coeff 14 1.01 3 0 0

molecule h2omol H2OTip4p.txt
Read molecule template h2omol:
  1 molecules
  0 fragments
  3 atoms with max type 2
  2 bonds with max type 1
  1 angles with max type 1
  0 dihedrals with max type 0
  0 impropers with max type 0
create_atoms 0 random 700 456415 NULL mol h2omol 454756
Created 2100 atoms

group H2O type 1 2
2100 atoms in group H2O
delete_atoms overlap 2 H2O H2O mol yes
System init for delete_atoms ...
PPPM initialization ...
  extracting TIP4P info from pair style
  G vector (1/distance) = 0.22269442
  grid = 30 15 15
  stencil order = 5
  estimated absolute RMS force accuracy = 0.020361483
  estimated relative force accuracy = 6.1318001e-05
  3d grid and FFT values/proc = 16940 6750
Generated 21 of 21 mixed pair_coeff terms from arithmetic mixing rule
Last active /omp style is kspace_style pppm/tip4p/omp
  update every 1 steps, delay 10 steps, check yes
  update every 1 steps, delay 10 steps, check yes
Deleted 699 atoms, new total = 1401
Deleted 466 bonds, new total = 934
Deleted 233 angles, new total = 467
fix myshk H2O shake 1.0e-5 200 0 b 1 a 1 mol h2omol
       0 = # of size 2 clusters
       0 = # of size 3 clusters
       0 = # of size 4 clusters
     467 = # of frozen angles
  find clusters CPU = 0.000 seconds
fix mynpt all npt temp 300 300 100 iso 1 1 1000

dump mydmp all atom 1000 dump.lammpstrj
variable mytemp equal temp
variable myvol equal vol
fix myat1 all ave/time 10 10 100 v_mytemp file temperature.dat
fix myat2 all ave/time 10 10 100 v_myvol file volume.dat
variable myoxy equal count(H2O)/3 # divide by 3 to get the number of molecule, not atom
variable mydensity equal 467/v_myvol
fix myat3 all ave/time 10 10 100 v_mydensity file density.dat
thermo 1000

timestep 1.0
run 25000
PPPM initialization ...
  extracting TIP4P info from pair style
  G vector (1/distance) = 0.21686544
  grid = 27 15 15
  stencil order = 5
  estimated absolute RMS force accuracy = 0.024052457
  estimated relative force accuracy = 7.243326e-05
  3d grid and FFT values/proc = 15488 6075
Generated 21 of 21 mixed pair_coeff terms from arithmetic mixing rule
Last active /omp style is kspace_style pppm/tip4p/omp
  update every 1 steps, delay 10 steps, check yes
Step          Temp          E_pair         E_mol          TotEng         Press          Volume
0   0              245.76801      0              245.76801      1814.6815      72000
Averages over the last 13 of 26 rows, steps 13000 to 25000:
Temp E_pair E_mol TotEng Press Volume
300.534 -5505.73 0 -4669.91 1.83823 14300.4
Loop time of 133.949 on 8 procs for 25000 steps with 1401 atoms

write_data H2O.data
System init for write_data ...
PPPM initialization ...
  extracting TIP4P info from pair style
  G vector (1/distance) = 0.22832049
  grid = 20 9 9
  stencil order = 5
  estimated absolute RMS force accuracy = 0.026235962
  estimated relative force accuracy = 7.9008822e-05
  3d grid and FFT values/proc = 6400 1620
Generated 21 of 21 mixed pair_coeff terms from arithmetic mixing rule
Last active /omp style is kspace_style pppm/tip4p/omp
