LAMMPS (23 Jun 2022 - Update 3)
units lj
dimension 3
boundary p p p

atom_style full
pair_style lj/cut 2.5
bond_style harmonic
read_data atomsdata.dat
Reading data file ...
  orthogonal box = (-10 -10 -10) to (30 30 30)
  reading atoms ...
  20 atoms
  reading velocities ...
  20 velocities
  scanning bonds ...
  reading bonds ...
  19 bonds
Finding 1-2 1-3 1-4 neighbors ...
     2 = max # of 1-2 neighbors
     2 = max # of 1-3 neighbors
     4 = max # of 1-4 neighbors
     6 = max # of special neighbors

thermo 100
thermo_style custom step temp pe press vol lx density
dump 2 all custom 10 dump.min.lammpstrj id x y z

fix mynve all nve
minimize 1.0e-10 1.0e-10 10000 10000
Generated 0 of 0 mixed pair_coeff terms from geometric mixing rule
  update every 1 steps, delay 0 steps, check yes
Step          Temp          PotEng         Press          Volume           Lx          Density
0   0              0.54349275    -0.00024411383  64000          40             0.0003125
Loop time of 0.000673569 on 1 procs for 101 steps with 20 atoms

Minimization stats:
  Stopping criterion = energy tolerance
  Energy initial, next-to-last, final =
  Force two-norm initial, final = 8.1286455 3.8865335e-09
  Force max component initial, final = 3.2123063 1.2742991e-09
  Final line search alpha, max atom move = 1 1.2742991e-09
  Iterations, force evaluations = 101 167

dump mydmp all atom 100 dump.lammpstrj

fix mynve all nve
fix mylgv all langevin 1.0 1.0 0.1 1530917
neigh_modify every 1 delay 5 check yes
timestep 0.005
run 100000
Generated 0 of 0 mixed pair_coeff terms from geometric mixing rule
Step          Temp          PotEng         Press          Volume           Lx          Density
101   0              5.4715714e-19 -5.0694651e-14  64000          40             0.0003125
Averages over the last 501 of 1002 rows, steps 50200 to 100101:
Temp PotEng Press Volume Lx Density
1.04314 0.118538 -4.40811e-06 64000 40 0.0003125
Loop time of 0.549242 on 1 procs for 100000 steps with 20 atoms
